Circuit: * D:\_git\SPICE\Some_Spice_Simulations\SPICE\Time_Domain\_BV_source\BV_source.asc

WARNING: Less than two connections to node VL.  This node is used by B1.
WARNING: Less than two connections to node ISEN.  This node is used by B2.
.OP point found by inspection.

Date: Sat Sep 23 14:46:45 2023
Total elapsed time: 0.176 seconds.

tnom = 27
temp = 27
method = modified trap
totiter = 14400
traniter = 14400
tranpoints = 7201
accept = 5784
rejected = 1417
matrix size = 8
fillins = 0
solver = Normal
Matrix Compiler1: 210 bytes object code size  0.1/0.1/[0.1]
Matrix Compiler2: off  [0.0]/0.1/0.1

