Circuit: * D:\_git\SPICE\Some_Spice_Simulations\SPICE\Time_Domain\Voltage_Divider_Step_Response.asc

.OP point found by inspection.

Date: Sat Sep 16 15:39:30 2023
Total elapsed time: 10.050 seconds.

tnom = 27
temp = 27
method = modified trap
totiter = 4000052
traniter = 4000052
tranpoints = 2000027
accept = 2000025
rejected = 2
matrix size = 3
fillins = 0
solver = Normal
Matrix Compiler1: 50 bytes object code size  0.0/0.0/[0.0]
Matrix Compiler2: off  [0.0]/0.0/0.0

