Circuit: * D:\_git\SPICE\Some_Spice_Simulations\SPICE\Time_Domain\_Measure_(meas)\Measure_Deriv.asc

.OP point found by inspection.
.step x=1e-007 y=1000
.step x=2e-007 y=1000
.step x=3e-007 y=1000
.step x=1e-007 y=10000
.step x=2e-007 y=10000
.step x=3e-007 y=10000


Measurement: vout_deriv
  step	D(v(out))	at
     1	1369.91	0.0012
     2	1716.48	0.0012
     3	1441.88	0.0012
     4	569.416	0.0012
     5	311.036	0.0012
     6	248.33	0.0012


Date: Wed Sep 20 17:08:40 2023
Total elapsed time: 0.154 seconds.

tnom = 27
temp = 27
method = modified trap
totiter = 2272
traniter = 2272
tranpoints = 1137
accept = 1118
rejected = 19
matrix size = 3
fillins = 0
solver = Normal
Matrix Compiler1: off  0.0/[0.0]/0.0
Matrix Compiler2:      15 opcodes  0.0/[0.0]/0.0

