Circuit: * D:\_git\SPICE\Some_Spice_Simulations\SPICE\Time_Domain\_Measure_(meas)\Measure_Average.asc

.OP point found by inspection.
.step x=1e-007 y=1000
.step x=2e-007 y=1000
.step x=3e-007 y=1000
.step x=1e-007 y=10000
.step x=2e-007 y=10000
.step x=3e-007 y=10000


Measurement: vavg
  step	AVG(v(out))	FROM	TO
     1	0.501032	0	0.002
     2	0.501014	0	0.002
     3	0.500225	0	0.002
     4	0.440786	0	0.002
     5	0.332725	0	0.002
     6	0.260724	0	0.002


Date: Wed Sep 20 17:04:56 2023
Total elapsed time: 0.190 seconds.

tnom = 27
temp = 27
method = modified trap
totiter = 2272
traniter = 2272
tranpoints = 1137
accept = 1118
rejected = 19
matrix size = 3
fillins = 0
solver = Normal
Matrix Compiler1: off  [0.0]/0.0/0.0
Matrix Compiler2: 175 bytes object code size  0.0/0.1/[0.0]

