Circuit: * D:\_git\SPICE\Some_Spice_Simulations\SPICE\Time_Domain\_Piecewise_Linear_Sources_(pwl)\Piecewise_Linear_Sources.asc

Direct Newton iteration for .op point succeeded.

Date: Sat Sep 23 11:16:42 2023
Total elapsed time: 0.048 seconds.

tnom = 27
temp = 27
method = modified trap
totiter = 2159
traniter = 2156
tranpoints = 1079
accept = 1079
rejected = 0
matrix size = 4
fillins = 0
solver = Normal
Matrix Compiler1: off  [0.0]/0.0/0.0
Matrix Compiler2:      18 opcodes  0.0/[0.0]/0.0

