Circuit: * D:\_git\SPICE\Some_Spice_Simulations\SPICE\Time_Domain\Initial_Conditions_RC_Response\Initial_Conditions_RC_Response.asc

Direct Newton iteration for .op point succeeded.

Date: Sun Sep 17 13:28:58 2023
Total elapsed time: 0.038 seconds.

tnom = 27
temp = 27
method = modified trap
totiter = 2389
traniter = 2386
tranpoints = 1194
accept = 1172
rejected = 22
matrix size = 3
fillins = 0
solver = Normal
Matrix Compiler1:       3 opcodes  0.0/[0.0]/0.0
Matrix Compiler2:      15 opcodes  0.0/[0.0]/0.0

