Circuit: * D:\_git\SPICE\Some_Spice_Simulations\SPICE\DC_Operating_Point\Operating_Point_(op).asc

Direct Newton iteration for .op point succeeded.

Date: Sat Oct 07 15:22:45 2023
Total elapsed time: 0.031 seconds.

tnom = 27
temp = 27
method = trap
totiter = 3
traniter = 0
tranpoints = 0
accept = 0
rejected = 0
matrix size = 3
fillins = 0
solver = Normal
Matrix Compiler1: 50 bytes object code size
Matrix Compiler2: 175 bytes object code size
