Circuit: * D:\_git\SPICE\Some_Spice_Simulations\SPICE\DC_Operating_Point\Operating_Point_Diode_(op).asc

.OP point found by inspection.
Semiconductor Device Operating Points:
                        --- Diodes ---
Name:      d1
Model:   1n5817
Id:      0.00e+00
Vd:      0.00e+00
Req:     1.12e+03
CAP:     1.90e-10



Date: Sat Oct 07 15:42:32 2023
Total elapsed time: 1.559 seconds.

tnom = 27
temp = 27
method = trap
totiter = 6
traniter = 0
tranpoints = 0
accept = 0
rejected = 0
matrix size = 4
fillins = 0
solver = Normal
Matrix Compiler1: 100 bytes object code size
Matrix Compiler2: 248 bytes object code size
