Circuit: * D:\_git\SPICE\Some_Spice_Simulations\SPICE\Time_Domain\Linear_Resistor_Param_RC\Linear_Resistor_Param_RC.asc

Direct Newton iteration for .op point succeeded.
.step res=1000
.step res=2000
.step res=3000
.step res=4000
.step res=5000
.step res=6000
.step res=7000
.step res=8000
.step res=9000
.step res=10000

Date: Sun Sep 17 14:21:10 2023
Total elapsed time: 0.253 seconds.

tnom = 27
temp = 27
method = modified trap
totiter = 2089
traniter = 2086
tranpoints = 1044
accept = 1044
rejected = 0
matrix size = 3
fillins = 0
solver = Normal
Matrix Compiler1: off  0.0/0.0/[0.0]
Matrix Compiler2:      15 opcodes  0.0/[0.0]/0.0

