Circuit: * D:\_git\SPICE\Some_Spice_Simulations\SPICE\Time_Domain\Parameter_Sweeps_RC_Response_(step)\Parameter_Sweeps_RC_Response.asc

.OP point found by inspection.
.step x=1e-007 y=1000
.step x=4.7e-007 y=1000
.step x=6.8e-007 y=1000
.step x=1e-007 y=10000
.step x=4.7e-007 y=10000
.step x=6.8e-007 y=10000

Date: Sun Sep 17 14:01:10 2023
Total elapsed time: 0.213 seconds.

tnom = 27
temp = 27
method = modified trap
totiter = 2272
traniter = 2272
tranpoints = 1137
accept = 1118
rejected = 19
matrix size = 3
fillins = 0
solver = Normal
Matrix Compiler1:       3 opcodes  0.0/0.0/[0.0]
Matrix Compiler2: 175 bytes object code size  0.0/0.0/[0.0]

